tests/data/power_flow/automatic-tap-regulator/trafo-control-tap-same-side-any-valid-tap/sym_output.json
{
  "version": "1.0",
  "type": "sym_output",
  "is_batch": false,
  "attributes": {},
  "data": {
    "node": [
      {
        "id": 2,
        "energized": 1,
        "u_pu": 0.9999994897958192,
        "u": 9999.994897958191,
        "u_angle": -5.965288902752594e-08,
        "p": 1102.127597334631,
        "q": 5026.237885203922
      },
      {
        "id": 4,
        "energized": 1,
        "u_pu": 0.9550976436776861,
        "u": 382.0390574710744,
        "u_angle": -2.6185409613966666,
        "p": -999.999999999987,
        "q": -4999.999999999801
      }
    ],
    "transformer": [
      {
        "id": 3,
        "energized": 1,
        "loading": 0.05145653750444719,
        "p_from": 1102.127597334631,
        "q_from": 5026.237885203922,
        "i_from": 0.2970846096364031,
        "s_from": 5145.653750444719,
        "p_to": -999.999999999987,
        "q_to": -4999.999999999801,
        "i_to": 7.705809736479206,
        "s_to": 5099.019513592587
      }
    ],
    "sym_load": [
      {
        "id": 5,
        "energized": 1,
        "p": 1000,
        "q": 5000,
        "i": 7.705809736479218,
        "s": 5099.019513592785,
        "pf": 0.196116135138184
      }
    ],
    "source": [
      {
        "id": 1,
        "energized": 1,
        "p": 1102.127597334631,
        "q": 5026.237885203921,
        "i": 0.2970846096364031,
        "s": 5145.653750444718,
        "pf": 0.2141861172138484
      }
    ],
    "transformer_tap_regulator": [
      {
        "id": 6,
        "energized": 1,
        "tap_pos": -4
      }
    ]
  }
}
